!- Darwin Line endings 

Version,
    23.2;                     !- Version Identifier

SimulationControl,
    No,                       !- Do Zone Sizing Calculation
    No,                       !- Do System Sizing Calculation
    No,                       !- Do Plant Sizing Calculation
    Yes,                      !- Run Simulation for Sizing Periods
    No,                       !- Run Simulation for Weather File Run Periods
    No,                       !- Do HVAC Sizing Simulation for Sizing Periods
    1;                        !- Maximum Number of HVAC Sizing Simulation Passes

Building,
    Chicago Midway International Airport,    !- Name
    0,                        !- North Axis
    Country,                  !- Terrain
    0.04,                     !- Loads Convergence Tolerance Value
    0.4,                      !- Temperature Convergence Tolerance Value
    FullInteriorAndExterior,    !- Solar Distribution
    ,                         !- Maximum Number of Warmup Days
    6;                        !- Minimum Number of Warmup Days

ShadowCalculation,
    PolygonClipping,          !- Shading Calculation Method
    Periodic,                 !- Shading Calculation Update Frequency Method
    20;                       !- Shading Calculation Update Frequency

SurfaceConvectionAlgorithm:Inside,
    TARP;                     !- Algorithm

SurfaceConvectionAlgorithm:Outside,
    TARP;                     !- Algorithm

HeatBalanceAlgorithm,
    ConductionTransferFunction;    !- Algorithm

Timestep,
    4;                        !- Number of Timesteps per Hour

Site:Location,
    CHICAGO_IL_USA TMY2-94846,    !- Name
    41.78,                    !- Latitude
    -87.75,                   !- Longitude
    -6,                       !- Time Zone
    190;                      !- Elevation

SizingPeriod:DesignDay,
    CHICAGO_IL_USA Cooling .4% Conditions DB=>MWB,    !- Name
    7,                        !- Month
    21,                       !- Day of Month
    SummerDesignDay,          !- Day Type
    32.8,                     !- Maximum DryBulb Temperature
    10.9,                     !- Daily DryBulb Temperature Range
    ,                         !- DryBulb Temperature Range Modifier Type
    ,                         !- DryBulb Temperature Range Modifier Day Schedule Name
    Wetbulb,                  !- Humidity Condition Type
    23.6,                     !- Wetbulb or DewPoint at Maximum DryBulb
    ,                         !- Humidity Condition Day Schedule Name
    ,                         !- Humidity Ratio at Maximum DryBulb
    ,                         !- Enthalpy at Maximum DryBulb
    ,                         !- Daily WetBulb Temperature Range
    99063.21,                 !- Barometric Pressure
    0,                        !- Wind Speed
    0,                        !- Wind Direction
    No,                       !- Rain Indicator
    No,                       !- Snow Indicator
    No,                       !- Daylight Saving Time Indicator
    ASHRAEClearSky,           !- Solar Model Indicator
    ,                         !- Beam Solar Day Schedule Name
    ,                         !- Diffuse Solar Day Schedule Name
    ,                         !- ASHRAE Clear Sky Optical Depth for Beam Irradiance taub
    ,                         !- ASHRAE Clear Sky Optical Depth for Diffuse Irradiance taud
    1;                        !- Sky Clearness

SizingPeriod:DesignDay,
    CHICAGO_IL_USA Heating 99.6% Conditions,    !- Name
    1,                        !- Month
    21,                       !- Day of Month
    WinterDesignDay,          !- Day Type
    -21.2,                    !- Maximum DryBulb Temperature
    0,                        !- Daily DryBulb Temperature Range
    ,                         !- DryBulb Temperature Range Modifier Type
    ,                         !- DryBulb Temperature Range Modifier Day Schedule Name
    Wetbulb,                  !- Humidity Condition Type
    -21.2,                    !- Wetbulb or DewPoint at Maximum DryBulb
    ,                         !- Humidity Condition Day Schedule Name
    ,                         !- Humidity Ratio at Maximum DryBulb
    ,                         !- Enthalpy at Maximum DryBulb
    ,                         !- Daily WetBulb Temperature Range
    99063.21,                 !- Barometric Pressure
    4.6,                      !- Wind Speed
    270,                      !- Wind Direction
    No,                       !- Rain Indicator
    No,                       !- Snow Indicator
    No,                       !- Daylight Saving Time Indicator
    ASHRAEClearSky,           !- Solar Model Indicator
    ,                         !- Beam Solar Day Schedule Name
    ,                         !- Diffuse Solar Day Schedule Name
    ,                         !- ASHRAE Clear Sky Optical Depth for Beam Irradiance taub
    ,                         !- ASHRAE Clear Sky Optical Depth for Diffuse Irradiance taud
    0;                        !- Sky Clearness

Site:GroundTemperature:BuildingSurface,
    18.3,                     !- January Ground Temperature
    18.2,                     !- February Ground Temperature
    18.3,                     !- March Ground Temperature
    18.4,                     !- April Ground Temperature
    20.1,                     !- May Ground Temperature
    22,                       !- June Ground Temperature
    22.3,                     !- July Ground Temperature
    22.5,                     !- August Ground Temperature
    22.5,                     !- September Ground Temperature
    20.7,                     !- October Ground Temperature
    18.9,                     !- November Ground Temperature
    18.5;                     !- December Ground Temperature

ScheduleTypeLimits,
    Any Number;               !- Name

Schedule:Compact,
    ALWAYS 4,                 !- Name
    Any Number,               !- Schedule Type Limits Name
    Through: 12/31,           !- Field 1
    For: AllDays,             !- Field 2
    Until: 24:00,             !- Field 3
    4;                        !- Field 4

Schedule:Compact,
    ALWAYS 20,                !- Name
    Any Number,               !- Schedule Type Limits Name
    Through: 12/31,           !- Field 1
    For: AllDays,             !- Field 2
    Until: 24:00,             !- Field 3
    20;                       !- Field 4

Schedule:Compact,
    ALWAYS 24,                !- Name
    Any Number,               !- Schedule Type Limits Name
    Through: 12/31,           !- Field 1
    For: AllDays,             !- Field 2
    Until: 24:00,             !- Field 3
    24;                       !- Field 4

Material,
    PLASTERBOARD-1,           !- Name
    MediumSmooth,             !- Roughness
    0.012,                    !- Thickness
    0.16,                     !- Conductivity
    950,                      !- Density
    840,                      !- Specific Heat
    0.9,                      !- Thermal Absorptance
    0.6,                      !- Solar Absorptance
    0.6;                      !- Visible Absorptance

Material,
    FIBERGLASS QUILT-1,       !- Name
    Rough,                    !- Roughness
    0.066,                    !- Thickness
    0.04,                     !- Conductivity
    12,                       !- Density
    840,                      !- Specific Heat
    0.9,                      !- Thermal Absorptance
    0.6,                      !- Solar Absorptance
    0.6;                      !- Visible Absorptance

Material,
    WOOD SIDING-1,            !- Name
    Rough,                    !- Roughness
    0.009,                    !- Thickness
    0.14,                     !- Conductivity
    530,                      !- Density
    900,                      !- Specific Heat
    0.9,                      !- Thermal Absorptance
    0.6,                      !- Solar Absorptance
    0.6;                      !- Visible Absorptance

Material,
    PLASTERBOARD-2,           !- Name
    Rough,                    !- Roughness
    0.01,                     !- Thickness
    0.16,                     !- Conductivity
    950,                      !- Density
    840,                      !- Specific Heat
    0.9,                      !- Thermal Absorptance
    0.6,                      !- Solar Absorptance
    0.6;                      !- Visible Absorptance

Material,
    FIBERGLASS QUILT-2,       !- Name
    Rough,                    !- Roughness
    0.1118,                   !- Thickness
    0.04,                     !- Conductivity
    12,                       !- Density
    840,                      !- Specific Heat
    0.9,                      !- Thermal Absorptance
    0.6,                      !- Solar Absorptance
    0.6;                      !- Visible Absorptance

Material,
    ROOF DECK,                !- Name
    Rough,                    !- Roughness
    0.019,                    !- Thickness
    0.14,                     !- Conductivity
    530,                      !- Density
    900,                      !- Specific Heat
    0.9,                      !- Thermal Absorptance
    0.6,                      !- Solar Absorptance
    0.6;                      !- Visible Absorptance

Material,
    HF-C5,                    !- Name
    MediumRough,              !- Roughness
    0.1015,                   !- Thickness
    1.7296,                   !- Conductivity
    2243,                     !- Density
    837,                      !- Specific Heat
    0.9,                      !- Thermal Absorptance
    0.65,                     !- Solar Absorptance
    0.65;                     !- Visible Absorptance

Construction,
    LTWALL,                   !- Name
    WOOD SIDING-1,            !- Outside Layer
    FIBERGLASS QUILT-1,       !- Layer 2
    PLASTERBOARD-1;           !- Layer 3

Construction,
    LTFLOOR,                  !- Name
    HF-C5;                    !- Outside Layer

Construction,
    LTROOF,                   !- Name
    ROOF DECK,                !- Outside Layer
    FIBERGLASS QUILT-2,       !- Layer 2
    PLASTERBOARD-2;           !- Layer 3

GlobalGeometryRules,
    UpperLeftCorner,          !- Starting Vertex Position
    Counterclockwise,         !- Vertex Entry Direction
    World;                    !- Coordinate System

Zone,
    ZONE ONE,                 !- Name
    0,                        !- Direction of Relative North
    0,                        !- X Origin
    0,                        !- Y Origin
    0,                        !- Z Origin
    1,                        !- Type
    1,                        !- Multiplier
    2.7,                      !- Ceiling Height
    129.6;                    !- Volume

BuildingSurface:Detailed,
    SURFACE NORTH,            !- Name
    Wall,                     !- Surface Type
    LTWALL,                   !- Construction Name
    ZONE ONE,                 !- Zone Name
    ,                         !- Space Name
    Outdoors,                 !- Outside Boundary Condition
    ,                         !- Outside Boundary Condition Object
    SunExposed,               !- Sun Exposure
    WindExposed,              !- Wind Exposure
    0.5,                      !- View Factor to Ground
    4,                        !- Number of Vertices
    8,                        !- Vertex 1 Xcoordinate
    6,                        !- Vertex 1 Ycoordinate
    2.7,                      !- Vertex 1 Zcoordinate
    8,                        !- Vertex 2 Xcoordinate
    6,                        !- Vertex 2 Ycoordinate
    0,                        !- Vertex 2 Zcoordinate
    0,                        !- Vertex 3 Xcoordinate
    6,                        !- Vertex 3 Ycoordinate
    0,                        !- Vertex 3 Zcoordinate
    0,                        !- Vertex 4 Xcoordinate
    6,                        !- Vertex 4 Ycoordinate
    2.7;                      !- Vertex 4 Zcoordinate

BuildingSurface:Detailed,
    ZONE SURFACE EAST,        !- Name
    Wall,                     !- Surface Type
    LTWALL,                   !- Construction Name
    ZONE ONE,                 !- Zone Name
    ,                         !- Space Name
    Outdoors,                 !- Outside Boundary Condition
    ,                         !- Outside Boundary Condition Object
    SunExposed,               !- Sun Exposure
    WindExposed,              !- Wind Exposure
    0.5,                      !- View Factor to Ground
    4,                        !- Number of Vertices
    8,                        !- Vertex 1 Xcoordinate
    0,                        !- Vertex 1 Ycoordinate
    2.7,                      !- Vertex 1 Zcoordinate
    8,                        !- Vertex 2 Xcoordinate
    0,                        !- Vertex 2 Ycoordinate
    0,                        !- Vertex 2 Zcoordinate
    8,                        !- Vertex 3 Xcoordinate
    6,                        !- Vertex 3 Ycoordinate
    0,                        !- Vertex 3 Zcoordinate
    8,                        !- Vertex 4 Xcoordinate
    6,                        !- Vertex 4 Ycoordinate
    2.7;                      !- Vertex 4 Zcoordinate

BuildingSurface:Detailed,
    ZONE SURFACE SOUTH,       !- Name
    Wall,                     !- Surface Type
    LTWALL,                   !- Construction Name
    ZONE ONE,                 !- Zone Name
    ,                         !- Space Name
    Outdoors,                 !- Outside Boundary Condition
    ,                         !- Outside Boundary Condition Object
    SunExposed,               !- Sun Exposure
    WindExposed,              !- Wind Exposure
    0.5,                      !- View Factor to Ground
    4,                        !- Number of Vertices
    0,                        !- Vertex 1 Xcoordinate
    0,                        !- Vertex 1 Ycoordinate
    2.7,                      !- Vertex 1 Zcoordinate
    0,                        !- Vertex 2 Xcoordinate
    0,                        !- Vertex 2 Ycoordinate
    0,                        !- Vertex 2 Zcoordinate
    8,                        !- Vertex 3 Xcoordinate
    0,                        !- Vertex 3 Ycoordinate
    0,                        !- Vertex 3 Zcoordinate
    8,                        !- Vertex 4 Xcoordinate
    0,                        !- Vertex 4 Ycoordinate
    2.7;                      !- Vertex 4 Zcoordinate

BuildingSurface:Detailed,
    ZONE SURFACE WEST,        !- Name
    Wall,                     !- Surface Type
    LTWALL,                   !- Construction Name
    ZONE ONE,                 !- Zone Name
    ,                         !- Space Name
    Outdoors,                 !- Outside Boundary Condition
    ,                         !- Outside Boundary Condition Object
    SunExposed,               !- Sun Exposure
    WindExposed,              !- Wind Exposure
    0.5,                      !- View Factor to Ground
    4,                        !- Number of Vertices
    0,                        !- Vertex 1 Xcoordinate
    6,                        !- Vertex 1 Ycoordinate
    2.7,                      !- Vertex 1 Zcoordinate
    0,                        !- Vertex 2 Xcoordinate
    6,                        !- Vertex 2 Ycoordinate
    0,                        !- Vertex 2 Zcoordinate
    0,                        !- Vertex 3 Xcoordinate
    0,                        !- Vertex 3 Ycoordinate
    0,                        !- Vertex 3 Zcoordinate
    0,                        !- Vertex 4 Xcoordinate
    0,                        !- Vertex 4 Ycoordinate
    2.7;                      !- Vertex 4 Zcoordinate

BuildingSurface:Detailed,
    ZONE SURFACE FLOOR,       !- Name
    Floor,                    !- Surface Type
    LTFLOOR,                  !- Construction Name
    ZONE ONE,                 !- Zone Name
    ,                         !- Space Name
    Ground,                   !- Outside Boundary Condition
    ,                         !- Outside Boundary Condition Object
    NoSun,                    !- Sun Exposure
    NoWind,                   !- Wind Exposure
    0,                        !- View Factor to Ground
    4,                        !- Number of Vertices
    0,                        !- Vertex 1 Xcoordinate
    0,                        !- Vertex 1 Ycoordinate
    0,                        !- Vertex 1 Zcoordinate
    0,                        !- Vertex 2 Xcoordinate
    6,                        !- Vertex 2 Ycoordinate
    0,                        !- Vertex 2 Zcoordinate
    8,                        !- Vertex 3 Xcoordinate
    6,                        !- Vertex 3 Ycoordinate
    0,                        !- Vertex 3 Zcoordinate
    8,                        !- Vertex 4 Xcoordinate
    0,                        !- Vertex 4 Ycoordinate
    0;                        !- Vertex 4 Zcoordinate

BuildingSurface:Detailed,
    ZONE SURFACE ROOF,        !- Name
    Roof,                     !- Surface Type
    LTROOF,                   !- Construction Name
    ZONE ONE,                 !- Zone Name
    ,                         !- Space Name
    Outdoors,                 !- Outside Boundary Condition
    ,                         !- Outside Boundary Condition Object
    SunExposed,               !- Sun Exposure
    WindExposed,              !- Wind Exposure
    0,                        !- View Factor to Ground
    4,                        !- Number of Vertices
    0,                        !- Vertex 1 Xcoordinate
    6,                        !- Vertex 1 Ycoordinate
    2.7,                      !- Vertex 1 Zcoordinate
    0,                        !- Vertex 2 Xcoordinate
    0,                        !- Vertex 2 Ycoordinate
    2.7,                      !- Vertex 2 Zcoordinate
    8,                        !- Vertex 3 Xcoordinate
    0,                        !- Vertex 3 Ycoordinate
    2.7,                      !- Vertex 3 Zcoordinate
    8,                        !- Vertex 4 Xcoordinate
    6,                        !- Vertex 4 Ycoordinate
    2.7;                      !- Vertex 4 Zcoordinate

ZoneControl:Thermostat,
    ZONE ONE Thermostat,      !- Name
    ZONE ONE,                 !- Zone or ZoneList Name
    ALWAYS 4,                 !- Control Type Schedule Name
    ThermostatSetpoint:DualSetpoint,    !- Control 1 Object Type
    Office Thermostat Dual SP Control;    !- Control 1 Name

ThermostatSetpoint:DualSetpoint,
    Office Thermostat Dual SP Control,    !- Name
    ALWAYS 20,                !- Heating Setpoint Temperature Schedule Name
    ALWAYS 24;                !- Cooling Setpoint Temperature Schedule Name

ZoneHVAC:IdealLoadsAirSystem,
    ZONE ONE Purchased Air,    !- Name
    ,                         !- Availability Schedule Name
    ZONE ONE Supply Inlet,    !- Zone Supply Air Node Name
    ,                         !- Zone Exhaust Air Node Name
    ,                         !- System Inlet Air Node Name
    50,                       !- Maximum Heating Supply Air Temperature
    13,                       !- Minimum Cooling Supply Air Temperature
    0.015,                    !- Maximum Heating Supply Air Humidity Ratio
    0.01,                     !- Minimum Cooling Supply Air Humidity Ratio
    NoLimit,                  !- Heating Limit
    ,                         !- Maximum Heating Air Flow Rate
    ,                         !- Maximum Sensible Heating Capacity
    NoLimit,                  !- Cooling Limit
    ,                         !- Maximum Cooling Air Flow Rate
    ,                         !- Maximum Total Cooling Capacity
    ,                         !- Heating Availability Schedule Name
    ,                         !- Cooling Availability Schedule Name
    ConstantSupplyHumidityRatio,    !- Dehumidification Control Type
    ,                         !- Cooling Sensible Heat Ratio
    ConstantSupplyHumidityRatio,    !- Humidification Control Type
    ,                         !- Design Specification Outdoor Air Object Name
    ,                         !- Outdoor Air Inlet Node Name
    ,                         !- Demand Controlled Ventilation Type
    ,                         !- Outdoor Air Economizer Type
    ,                         !- Heat Recovery Type
    ,                         !- Sensible Heat Recovery Effectiveness
    ;                         !- Latent Heat Recovery Effectiveness

ZoneHVAC:EquipmentList,
    ZONE ONE Equipment,       !- Name
    SequentialLoad,           !- Load Distribution Scheme
    ZoneHVAC:IdealLoadsAirSystem,    !- Zone Equipment 1 Object Type
    ZONE ONE Purchased Air,    !- Zone Equipment 1 Name
    1,                        !- Zone Equipment 1 Cooling Sequence
    1,                        !- Zone Equipment 1 Heating or NoLoad Sequence
    ,                         !- Zone Equipment 1 Sequential Cooling Fraction Schedule Name
    ;                         !- Zone Equipment 1 Sequential Heating Fraction Schedule Name

ZoneHVAC:EquipmentConnections,
    ZONE ONE,                 !- Zone Name
    ZONE ONE Equipment,       !- Zone Conditioning Equipment List Name
    ZONE ONE Supply Inlet,    !- Zone Air Inlet Node or NodeList Name
    ,                         !- Zone Air Exhaust Node or NodeList Name
    ZONE ONE Zone Air Node,    !- Zone Air Node Name
    ZONE ONE Return Outlet;    !- Zone Return Air Node or NodeList Name

Output:VariableDictionary,
    Regular;                  !- Key Field

Output:Surfaces:Drawing,
    DXF;                      !- Report Type

Output:Constructions,
    Constructions;            !- Details Type 1

Output:Variable,
    *,                        !- Key Value
    Site Outdoor Air Drybulb Temperature,    !- Variable Name
    Hourly;                   !- Reporting Frequency

Output:Variable,
    *,                        !- Key Value
    Zone Air System Sensible Cooling Energy,    !- Variable Name
    Hourly;                   !- Reporting Frequency

Output:Variable,
    *,                        !- Key Value
    Zone Air System Sensible Heating Energy,    !- Variable Name
    Hourly;                   !- Reporting Frequency

Output:Variable,
    *,                        !- Key Value
    Zone Air Temperature,     !- Variable Name
    Hourly;                   !- Reporting Frequency

Output:Meter,
    DistrictHeatingWater:Facility,    !- Key Name
    Hourly;                   !- Reporting Frequency

Output:Meter,
    DistrictCooling:Facility,    !- Key Name
    Hourly;                   !- Reporting Frequency