!- Linux Line endings 

Version,
    24.1;                     !- Version Identifier

SimulationControl,
    No,                       !- Do Zone Sizing Calculation
    No,                       !- Do System Sizing Calculation
    No,                       !- Do Plant Sizing Calculation
    No,                       !- Run Simulation for Sizing Periods
    Yes,                      !- Run Simulation for Weather File Run Periods
    No,                       !- Do HVAC Sizing Simulation for Sizing Periods
    1;                        !- Maximum Number of HVAC Sizing Simulation Passes

Building,
    Single family House,      !- Name
    0,                        !- North Axis
    Suburbs,                  !- Terrain
    0.001,                    !- Loads Convergence Tolerance Value
    0.005,                    !- Temperature Convergence Tolerance Value
    FullInteriorAndExterior,    !- Solar Distribution
    25,                       !- Maximum Number of Warmup Days
    6;                        !- Minimum Number of Warmup Days

SurfaceConvectionAlgorithm:Inside,
    TARP;                     !- Algorithm

SurfaceConvectionAlgorithm:Outside,
    DOE-2;                    !- Algorithm

HeatBalanceAlgorithm,
    ConductionTransferFunction;    !- Algorithm

Timestep,
    6;                        !- Number of Timesteps per Hour

Site:Location,
    CHICAGO_IL_USA TMY2-94846,    !- Name
    41.78,                    !- Latitude
    -87.75,                   !- Longitude
    -6,                       !- Time Zone
    190;                      !- Elevation

RunPeriod,
    Run Period 1,             !- Name
    1,                        !- Begin Month
    1,                        !- Begin Day of Month
    2023,                     !- Begin Year
    12,                       !- End Month
    31,                       !- End Day of Month
    2023,                     !- End Year
    Sunday,                   !- Day of Week for Start Day
    Yes,                      !- Use Weather File Holidays and Special Days
    Yes,                      !- Use Weather File Daylight Saving Period
    No,                       !- Apply Weekend Holiday Rule
    Yes,                      !- Use Weather File Rain Indicators
    Yes;                      !- Use Weather File Snow Indicators

Site:GroundTemperature:BuildingSurface,
    20.03,                    !- January Ground Temperature
    20.03,                    !- February Ground Temperature
    20.13,                    !- March Ground Temperature
    20.3,                     !- April Ground Temperature
    20.43,                    !- May Ground Temperature
    20.52,                    !- June Ground Temperature
    20.62,                    !- July Ground Temperature
    20.77,                    !- August Ground Temperature
    20.78,                    !- September Ground Temperature
    20.55,                    !- October Ground Temperature
    20.44,                    !- November Ground Temperature
    20.2;                     !- December Ground Temperature

ScheduleTypeLimits,
    Any Number;               !- Name

ScheduleTypeLimits,
    Fraction,                 !- Name
    0,                        !- Lower Limit Value
    1,                        !- Upper Limit Value
    CONTINUOUS;               !- Numeric Type

ScheduleTypeLimits,
    Temperature,              !- Name
    -60,                      !- Lower Limit Value
    200,                      !- Upper Limit Value
    CONTINUOUS,               !- Numeric Type
    Temperature;              !- Unit Type

ScheduleTypeLimits,
    Control Type,             !- Name
    0,                        !- Lower Limit Value
    4,                        !- Upper Limit Value
    DISCRETE;                 !- Numeric Type

ScheduleTypeLimits,
    On/Off,                   !- Name
    0,                        !- Lower Limit Value
    1,                        !- Upper Limit Value
    DISCRETE;                 !- Numeric Type

Schedule:Compact,
    Activity Sch,             !- Name
    Any Number,               !- Schedule Type Limits Name
    Through: 12/31,           !- Field 1
    For: AllDays,             !- Field 2
    Until: 24:00,             !- Field 3
    131.8;                    !- Field 4

Schedule:Compact,
    Work Eff Sch,             !- Name
    Any Number,               !- Schedule Type Limits Name
    Through: 12/31,           !- Field 1
    For: AllDays,             !- Field 2
    Until: 24:00,             !- Field 3
    0.0;                      !- Field 4

Schedule:Compact,
    Clothing Sch,             !- Name
    Any Number,               !- Schedule Type Limits Name
    Through: 12/31,           !- Field 1
    For: AllDays,             !- Field 2
    Until: 24:00,             !- Field 3
    1.0;                      !- Field 4

Schedule:Compact,
    Air Velo Sch,             !- Name
    Any Number,               !- Schedule Type Limits Name
    Through: 12/31,           !- Field 1
    For: AllDays,             !- Field 2
    Until: 24:00,             !- Field 3
    0.137;                    !- Field 4

Schedule:Compact,
    HOUSE OCCUPANCY,          !- Name
    Fraction,                 !- Schedule Type Limits Name
    Through: 12/31,           !- Field 1
    For: WeekDays,            !- Field 2
    Until: 6:00,              !- Field 3
    1.0,                      !- Field 4
    Until: 7:00,              !- Field 5
    0.10,                     !- Field 6
    Until: 8:00,              !- Field 7
    0.50,                     !- Field 8
    Until: 12:00,             !- Field 9
    1.00,                     !- Field 10
    Until: 13:00,             !- Field 11
    0.50,                     !- Field 12
    Until: 16:00,             !- Field 13
    1.00,                     !- Field 14
    Until: 17:00,             !- Field 15
    0.50,                     !- Field 16
    Until: 18:00,             !- Field 17
    0.10,                     !- Field 18
    Until: 24:00,             !- Field 19
    1.0,                      !- Field 20
    For: AllOtherDays,        !- Field 21
    Until: 24:00,             !- Field 22
    0.0;                      !- Field 23

Schedule:Compact,
    INTERMITTENT,             !- Name
    Fraction,                 !- Schedule Type Limits Name
    Through: 12/31,           !- Field 1
    For: WeekDays,            !- Field 2
    Until: 8:00,              !- Field 3
    0.0,                      !- Field 4
    Until: 18:00,             !- Field 5
    1.00,                     !- Field 6
    Until: 24:00,             !- Field 7
    0.0,                      !- Field 8
    For: AllOtherDays,        !- Field 9
    Until: 24:00,             !- Field 10
    0.0;                      !- Field 11

Schedule:Compact,
    HOUSE LIGHTING,           !- Name
    Fraction,                 !- Schedule Type Limits Name
    Through: 12/31,           !- Field 1
    For: WeekDays,            !- Field 2
    Until: 6:00,              !- Field 3
    0.05,                     !- Field 4
    Until: 7:00,              !- Field 5
    0.20,                     !- Field 6
    Until: 17:00,             !- Field 7
    1.00,                     !- Field 8
    Until: 18:00,             !- Field 9
    0.50,                     !- Field 10
    Until: 24:00,             !- Field 11
    0.05,                     !- Field 12
    For: AllOtherDays,        !- Field 13
    Until: 24:00,             !- Field 14
    0.05;                     !- Field 15

Schedule:Compact,
    ReportSch,                !- Name
    on/off,                   !- Schedule Type Limits Name
    Through: 1/20,            !- Field 1
    For: AllDays,             !- Field 2
    Until:  24:00,            !- Field 3
    0.0,                      !- Field 4
    Through: 1/21,            !- Field 5
    For: AllDays,             !- Field 6
    Until:  24:00,            !- Field 7
    1.0,                      !- Field 8
    Through: 7/20,            !- Field 9
    For: AllDays,             !- Field 10
    Until:  24:00,            !- Field 11
    0.0,                      !- Field 12
    Through: 7/21,            !- Field 13
    For: AllDays,             !- Field 14
    Until:  24:00,            !- Field 15
    1.0,                      !- Field 16
    Through: 12/31,           !- Field 17
    For: AllDays,             !- Field 18
    Until:  24:00,            !- Field 19
    0.0;                      !- Field 20

Schedule:Compact,
    HVACAvailSched,           !- Name
    Fraction,                 !- Schedule Type Limits Name
    Through: 12/31,           !- Field 1
    For: AllDays,             !- Field 2
    Until: 24:00,             !- Field 3
    1.0;                      !- Field 4

Schedule:Compact,
    Dual Heating Setpoints,    !- Name
    Temperature,              !- Schedule Type Limits Name
    Through: 12/31,           !- Field 1
    For: AllDays,             !- Field 2
    Until: 24:00,             !- Field 3
    20.54;                    !- Field 4

Schedule:Compact,
    Dual Cooling Setpoints,    !- Name
    Temperature,              !- Schedule Type Limits Name
    Through: 12/31,           !- Field 1
    For: AllDays,             !- Field 2
    Until: 24:00,             !- Field 3
    29.76;                    !- Field 4

Schedule:Compact,
    Dual Zone Control Type Sched,    !- Name
    Control Type,             !- Schedule Type Limits Name
    Through: 12/31,           !- Field 1
    For: AllDays,             !- Field 2
    Until: 24:00,             !- Field 3
    4;                        !- Field 4

Schedule:Compact,
    CyclingFanSchedule,       !- Name
    Any Number,               !- Schedule Type Limits Name
    Through: 12/31,           !- Field 1
    For: AllDays,             !- Field 2
    Until: 24:00,             !- Field 3
    0.0;                      !- Field 4

Schedule:Compact,
    INF-SCHED,                !- Name
    ANY NUMBER,               !- Schedule Type Limits Name
    Through: 12/31,           !- Field 1
    For: Alldays,             !- Field 2
    Until: 24:00,             !- Field 3
    1.00;                     !- Field 4

Material,
    A1 - 1 IN STUCCO,         !- Name
    Smooth,                   !- Roughness
    0.025389841,              !- Thickness
    0.6918309,                !- Conductivity
    1858.142,                 !- Density
    836.8,                    !- Specific Heat
    0.9,                      !- Thermal Absorptance
    0.92,                     !- Solar Absorptance
    0.92;                     !- Visible Absorptance

Material,
    CB11,                     !- Name
    MediumRough,              !- Roughness
    0.2032,                   !- Thickness
    1.048,                    !- Conductivity
    1105,                     !- Density
    837,                      !- Specific Heat
    0.9,                      !- Thermal Absorptance
    0.2,                      !- Solar Absorptance
    0.2;                      !- Visible Absorptance

Material,
    GP01,                     !- Name
    MediumSmooth,             !- Roughness
    0.0127,                   !- Thickness
    0.16,                     !- Conductivity
    801,                      !- Density
    837,                      !- Specific Heat
    0.9,                      !- Thermal Absorptance
    0.75,                     !- Solar Absorptance
    0.75;                     !- Visible Absorptance

Material,
    IN02,                     !- Name
    Rough,                    !- Roughness
    0.090099998,              !- Thickness
    0.043000001,              !- Conductivity
    10,                       !- Density
    837,                      !- Specific Heat
    0.9,                      !- Thermal Absorptance
    0.75,                     !- Solar Absorptance
    0.75;                     !- Visible Absorptance

Material,
    IN05,                     !- Name
    Rough,                    !- Roughness
    0.2458,                   !- Thickness
    0.043000001,              !- Conductivity
    10,                       !- Density
    837,                      !- Specific Heat
    0.9,                      !- Thermal Absorptance
    0.75,                     !- Solar Absorptance
    0.75;                     !- Visible Absorptance

Material,
    PW03,                     !- Name
    MediumSmooth,             !- Roughness
    0.0127,                   !- Thickness
    0.115,                    !- Conductivity
    545,                      !- Density
    1213,                     !- Specific Heat
    0.9,                      !- Thermal Absorptance
    0.78,                     !- Solar Absorptance
    0.78;                     !- Visible Absorptance

Material,
    CC03,                     !- Name
    MediumRough,              !- Roughness
    0.1016,                   !- Thickness
    1.31,                     !- Conductivity
    2243,                     !- Density
    837,                      !- Specific Heat
    0.9,                      !- Thermal Absorptance
    0.65,                     !- Solar Absorptance
    0.65;                     !- Visible Absorptance

Material,
    HF-A3,                    !- Name
    Smooth,                   !- Roughness
    0.0015,                   !- Thickness
    44.9696,                  !- Conductivity
    7689,                     !- Density
    418,                      !- Specific Heat
    0.9,                      !- Thermal Absorptance
    0.2,                      !- Solar Absorptance
    0.2;                      !- Visible Absorptance

Material:NoMass,
    AR02,                     !- Name
    VeryRough,                !- Roughness
    0.078000002,              !- Thermal Resistance
    0.9,                      !- Thermal Absorptance
    0.7,                      !- Solar Absorptance
    0.7;                      !- Visible Absorptance

Material:NoMass,
    CP02,                     !- Name
    Rough,                    !- Roughness
    0.217,                    !- Thermal Resistance
    0.9,                      !- Thermal Absorptance
    0.75,                     !- Solar Absorptance
    0.75;                     !- Visible Absorptance

WindowMaterial:Glazing,
    CLEAR 3MM,                !- Name
    SpectralAverage,          !- Optical Data Type
    ,                         !- Window Glass Spectral Data Set Name
    0.896,                    !- Thickness
    0.837,                    !- Solar Transmittance at Normal Incidence
    0.075,                    !- Front Side Solar Reflectance at Normal Incidence
    0.075,                    !- Back Side Solar Reflectance at Normal Incidence
    0.898,                    !- Visible Transmittance at Normal Incidence
    0.081,                    !- Front Side Visible Reflectance at Normal Incidence
    0.081,                    !- Back Side Visible Reflectance at Normal Incidence
    0,                        !- Infrared Transmittance at Normal Incidence
    0.84,                     !- Front Side Infrared Hemispherical Emissivity
    0.84,                     !- Back Side Infrared Hemispherical Emissivity
    0.9;                      !- Conductivity

WindowMaterial:Gas,
    AIR 6MM,                  !- Name
    AIR,                      !- Gas Type
    0.006;                    !- Thickness

Construction,
    EXTWALL:LIVING,           !- Name
    A1 - 1 IN STUCCO,         !- Outside Layer
    CB11,                     !- Layer 2
    GP01;                     !- Layer 3

Construction,
    INTERIORWall,             !- Name
    GP01,                     !- Outside Layer
    IN02,                     !- Layer 2
    GP01;                     !- Layer 3

Construction,
    FLOOR:GARAGE,             !- Name
    CC03;                     !- Outside Layer

Construction,
    FLOOR:LIVING,             !- Name
    CC03,                     !- Outside Layer
    CP02;                     !- Layer 2

Construction,
    ROOF,                     !- Name
    AR02,                     !- Outside Layer
    PW03;                     !- Layer 2

Construction,
    EXTWALL:GARAGE,           !- Name
    A1 - 1 IN STUCCO,         !- Outside Layer
    CB11;                     !- Layer 2

Construction,
    CEILING:LIVING,           !- Name
    IN05,                     !- Outside Layer
    GP01;                     !- Layer 2

Construction,
    reverseCEILING:LIVING,    !- Name
    GP01,                     !- Outside Layer
    IN05;                     !- Layer 2

Construction,
    GABLE,                    !- Name
    PW03;                     !- Outside Layer

Construction,
    Dbl Clr 3mm/6mm Air,      !- Name
    CLEAR 3MM,                !- Outside Layer
    AIR 6MM,                  !- Layer 2
    CLEAR 3MM;                !- Layer 3

Construction,
    Garage:SteelDoor,         !- Name
    HF-A3;                    !- Outside Layer

Construction,
    CEILING:Garage,           !- Name
    GP01;                     !- Outside Layer

GlobalGeometryRules,
    UpperLeftCorner,          !- Starting Vertex Position
    CounterClockWise,         !- Vertex Entry Direction
    World;                    !- Coordinate System

Zone,
    LIVING ZONE,              !- Name
    0,                        !- Direction of Relative North
    0,                        !- X Origin
    0,                        !- Y Origin
    0,                        !- Z Origin
    1,                        !- Type
    1,                        !- Multiplier
    autocalculate,            !- Ceiling Height
    autocalculate;            !- Volume

Zone,
    GARAGE ZONE,              !- Name
    0,                        !- Direction of Relative North
    0,                        !- X Origin
    0,                        !- Y Origin
    0,                        !- Z Origin
    1,                        !- Type
    1,                        !- Multiplier
    autocalculate,            !- Ceiling Height
    autocalculate;            !- Volume

Zone,
    ATTIC ZONE,               !- Name
    0,                        !- Direction of Relative North
    0,                        !- X Origin
    0,                        !- Y Origin
    0,                        !- Z Origin
    1,                        !- Type
    1,                        !- Multiplier
    autocalculate,            !- Ceiling Height
    autocalculate;            !- Volume

BuildingSurface:Detailed,
    Living:North,             !- Name
    Wall,                     !- Surface Type
    EXTWALL:LIVING,           !- Construction Name
    LIVING ZONE,              !- Zone Name
    ,                         !- Space Name
    Outdoors,                 !- Outside Boundary Condition
    ,                         !- Outside Boundary Condition Object
    SunExposed,               !- Sun Exposure
    WindExposed,              !- Wind Exposure
    0.5,                      !- View Factor to Ground
    4,                        !- Number of Vertices
    10.323,                   !- Vertex 1 Xcoordinate
    10.778,                   !- Vertex 1 Ycoordinate
    2.4384,                   !- Vertex 1 Zcoordinate
    10.323,                   !- Vertex 2 Xcoordinate
    10.778,                   !- Vertex 2 Ycoordinate
    0,                        !- Vertex 2 Zcoordinate
    0,                        !- Vertex 3 Xcoordinate
    10.778,                   !- Vertex 3 Ycoordinate
    0,                        !- Vertex 3 Zcoordinate
    0,                        !- Vertex 4 Xcoordinate
    10.778,                   !- Vertex 4 Ycoordinate
    2.4384;                   !- Vertex 4 Zcoordinate

BuildingSurface:Detailed,
    Living:East,              !- Name
    Wall,                     !- Surface Type
    EXTWALL:LIVING,           !- Construction Name
    LIVING ZONE,              !- Zone Name
    ,                         !- Space Name
    Outdoors,                 !- Outside Boundary Condition
    ,                         !- Outside Boundary Condition Object
    SunExposed,               !- Sun Exposure
    WindExposed,              !- Wind Exposure
    0.5,                      !- View Factor to Ground
    4,                        !- Number of Vertices
    17.242,                   !- Vertex 1 Xcoordinate
    0,                        !- Vertex 1 Ycoordinate
    2.4384,                   !- Vertex 1 Zcoordinate
    17.242,                   !- Vertex 2 Xcoordinate
    0,                        !- Vertex 2 Ycoordinate
    0,                        !- Vertex 2 Zcoordinate
    17.242,                   !- Vertex 3 Xcoordinate
    10.778,                   !- Vertex 3 Ycoordinate
    0,                        !- Vertex 3 Zcoordinate
    17.242,                   !- Vertex 4 Xcoordinate
    10.778,                   !- Vertex 4 Ycoordinate
    2.4384;                   !- Vertex 4 Zcoordinate

BuildingSurface:Detailed,
    Living:South,             !- Name
    Wall,                     !- Surface Type
    EXTWALL:LIVING,           !- Construction Name
    LIVING ZONE,              !- Zone Name
    ,                         !- Space Name
    Outdoors,                 !- Outside Boundary Condition
    ,                         !- Outside Boundary Condition Object
    SunExposed,               !- Sun Exposure
    WindExposed,              !- Wind Exposure
    0.5,                      !- View Factor to Ground
    4,                        !- Number of Vertices
    0,                        !- Vertex 1 Xcoordinate
    0,                        !- Vertex 1 Ycoordinate
    2.4383,                   !- Vertex 1 Zcoordinate
    0,                        !- Vertex 2 Xcoordinate
    0,                        !- Vertex 2 Ycoordinate
    0,                        !- Vertex 2 Zcoordinate
    17.242,                   !- Vertex 3 Xcoordinate
    0,                        !- Vertex 3 Ycoordinate
    0,                        !- Vertex 3 Zcoordinate
    17.242,                   !- Vertex 4 Xcoordinate
    0,                        !- Vertex 4 Ycoordinate
    2.4384;                   !- Vertex 4 Zcoordinate

BuildingSurface:Detailed,
    Living:West,              !- Name
    Wall,                     !- Surface Type
    EXTWALL:LIVING,           !- Construction Name
    LIVING ZONE,              !- Zone Name
    ,                         !- Space Name
    Outdoors,                 !- Outside Boundary Condition
    ,                         !- Outside Boundary Condition Object
    SunExposed,               !- Sun Exposure
    WindExposed,              !- Wind Exposure
    0.5,                      !- View Factor to Ground
    4,                        !- Number of Vertices
    0,                        !- Vertex 1 Xcoordinate
    10.778,                   !- Vertex 1 Ycoordinate
    2.4384,                   !- Vertex 1 Zcoordinate
    0,                        !- Vertex 2 Xcoordinate
    10.778,                   !- Vertex 2 Ycoordinate
    0,                        !- Vertex 2 Zcoordinate
    0,                        !- Vertex 3 Xcoordinate
    0,                        !- Vertex 3 Ycoordinate
    0,                        !- Vertex 3 Zcoordinate
    0,                        !- Vertex 4 Xcoordinate
    0,                        !- Vertex 4 Ycoordinate
    2.4384;                   !- Vertex 4 Zcoordinate

BuildingSurface:Detailed,
    Garage:Interior,          !- Name
    WALL,                     !- Surface Type
    INTERIORWall,             !- Construction Name
    GARAGE ZONE,              !- Zone Name
    ,                         !- Space Name
    Surface,                  !- Outside Boundary Condition
    Living:Interior,          !- Outside Boundary Condition Object
    NoSun,                    !- Sun Exposure
    NoWind,                   !- Wind Exposure
    0.5,                      !- View Factor to Ground
    4,                        !- Number of Vertices
    10.323,                   !- Vertex 1 Xcoordinate
    10.778,                   !- Vertex 1 Ycoordinate
    2.4384,                   !- Vertex 1 Zcoordinate
    10.323,                   !- Vertex 2 Xcoordinate
    10.778,                   !- Vertex 2 Ycoordinate
    0,                        !- Vertex 2 Zcoordinate
    17.242,                   !- Vertex 3 Xcoordinate
    10.778,                   !- Vertex 3 Ycoordinate
    0,                        !- Vertex 3 Zcoordinate
    17.242,                   !- Vertex 4 Xcoordinate
    10.778,                   !- Vertex 4 Ycoordinate
    2.4384;                   !- Vertex 4 Zcoordinate

BuildingSurface:Detailed,
    Living:Interior,          !- Name
    WALL,                     !- Surface Type
    INTERIORWall,             !- Construction Name
    LIVING ZONE,              !- Zone Name
    ,                         !- Space Name
    Surface,                  !- Outside Boundary Condition
    Garage:Interior,          !- Outside Boundary Condition Object
    NoSun,                    !- Sun Exposure
    NoWind,                   !- Wind Exposure
    0.5,                      !- View Factor to Ground
    4,                        !- Number of Vertices
    17.242,                   !- Vertex 1 Xcoordinate
    10.778,                   !- Vertex 1 Ycoordinate
    2.4384,                   !- Vertex 1 Zcoordinate
    17.242,                   !- Vertex 2 Xcoordinate
    10.778,                   !- Vertex 2 Ycoordinate
    0,                        !- Vertex 2 Zcoordinate
    10.323,                   !- Vertex 3 Xcoordinate
    10.778,                   !- Vertex 3 Ycoordinate
    0,                        !- Vertex 3 Zcoordinate
    10.323,                   !- Vertex 4 Xcoordinate
    10.778,                   !- Vertex 4 Ycoordinate
    2.4384;                   !- Vertex 4 Zcoordinate

BuildingSurface:Detailed,
    Living:Floor,             !- Name
    FLOOR,                    !- Surface Type
    FLOOR:LIVING,             !- Construction Name
    LIVING ZONE,              !- Zone Name
    ,                         !- Space Name
    Surface,                  !- Outside Boundary Condition
    Living:Floor,             !- Outside Boundary Condition Object
    NoSun,                    !- Sun Exposure
    NoWind,                   !- Wind Exposure
    0,                        !- View Factor to Ground
    4,                        !- Number of Vertices
    0,                        !- Vertex 1 Xcoordinate
    0,                        !- Vertex 1 Ycoordinate
    0,                        !- Vertex 1 Zcoordinate
    0,                        !- Vertex 2 Xcoordinate
    10.778,                   !- Vertex 2 Ycoordinate
    0,                        !- Vertex 2 Zcoordinate
    17.242,                   !- Vertex 3 Xcoordinate
    10.778,                   !- Vertex 3 Ycoordinate
    0,                        !- Vertex 3 Zcoordinate
    17.242,                   !- Vertex 4 Xcoordinate
    0,                        !- Vertex 4 Ycoordinate
    0;                        !- Vertex 4 Zcoordinate

BuildingSurface:Detailed,
    Living:Ceiling,           !- Name
    CEILING,                  !- Surface Type
    CEILING:LIVING,           !- Construction Name
    LIVING ZONE,              !- Zone Name
    ,                         !- Space Name
    Surface,                  !- Outside Boundary Condition
    Attic:LivingFloor,        !- Outside Boundary Condition Object
    NoSun,                    !- Sun Exposure
    NoWind,                   !- Wind Exposure
    0,                        !- View Factor to Ground
    4,                        !- Number of Vertices
    0,                        !- Vertex 1 Xcoordinate
    10.778,                   !- Vertex 1 Ycoordinate
    2.4384,                   !- Vertex 1 Zcoordinate
    0,                        !- Vertex 2 Xcoordinate
    0,                        !- Vertex 2 Ycoordinate
    2.4384,                   !- Vertex 2 Zcoordinate
    17.242,                   !- Vertex 3 Xcoordinate
    0,                        !- Vertex 3 Ycoordinate
    2.4384,                   !- Vertex 3 Zcoordinate
    17.242,                   !- Vertex 4 Xcoordinate
    10.778,                   !- Vertex 4 Ycoordinate
    2.4384;                   !- Vertex 4 Zcoordinate

BuildingSurface:Detailed,
    Attic:LivingFloor,        !- Name
    FLOOR,                    !- Surface Type
    reverseCEILING:LIVING,    !- Construction Name
    ATTIC ZONE,               !- Zone Name
    ,                         !- Space Name
    Surface,                  !- Outside Boundary Condition
    Living:Ceiling,           !- Outside Boundary Condition Object
    NoSun,                    !- Sun Exposure
    NoWind,                   !- Wind Exposure
    0.5,                      !- View Factor to Ground
    4,                        !- Number of Vertices
    0,                        !- Vertex 1 Xcoordinate
    0,                        !- Vertex 1 Ycoordinate
    2.4384,                   !- Vertex 1 Zcoordinate
    0,                        !- Vertex 2 Xcoordinate
    10.778,                   !- Vertex 2 Ycoordinate
    2.4384,                   !- Vertex 2 Zcoordinate
    17.242,                   !- Vertex 3 Xcoordinate
    10.778,                   !- Vertex 3 Ycoordinate
    2.4384,                   !- Vertex 3 Zcoordinate
    17.242,                   !- Vertex 4 Xcoordinate
    0,                        !- Vertex 4 Ycoordinate
    2.4384;                   !- Vertex 4 Zcoordinate

BuildingSurface:Detailed,
    NorthRoof1,               !- Name
    ROOF,                     !- Surface Type
    ROOF,                     !- Construction Name
    ATTIC ZONE,               !- Zone Name
    ,                         !- Space Name
    Outdoors,                 !- Outside Boundary Condition
    ,                         !- Outside Boundary Condition Object
    SunExposed,               !- Sun Exposure
    WindExposed,              !- Wind Exposure
    0.9,                      !- View Factor to Ground
    4,                        !- Number of Vertices
    13.782,                   !- Vertex 1 Xcoordinate